Version 4
SHEET 1 1056 680
WIRE -544 -224 -544 -256
WIRE -544 -112 -544 -144
WIRE 352 -80 352 -144
WIRE 256 32 208 32
WIRE 432 32 320 32
WIRE 528 32 432 32
WIRE 560 32 528 32
WIRE 912 32 816 32
WIRE 992 32 992 16
WIRE 992 32 912 32
WIRE 352 64 352 0
WIRE -16 80 -16 48
WIRE 992 80 992 32
WIRE 432 128 432 96
WIRE 528 128 528 32
WIRE 560 128 528 128
WIRE 576 128 560 128
WIRE 352 176 352 144
WIRE -16 192 -16 160
WIRE 912 224 912 32
WIRE 912 224 816 224
WIRE 992 240 992 144
WIRE 496 320 496 288
WIRE 688 320 688 288
FLAG 688 320 0
FLAG 496 320 0
FLAG 992 240 0
FLAG 432 128 0
FLAG -544 -256 Vripple
FLAG -544 -112 0
FLAG -16 48 Vin
FLAG -16 192 0
FLAG 208 32 Vripple
FLAG 352 176 0
FLAG 352 -144 Vin
SYMBOL PowerProducts\\ADM7172 688 128 R0
SYMATTR InstName U1
SYMBOL cap 480 224 R0
SYMATTR InstName C2
SYMATTR Value 1n
SYMBOL cap 416 32 R0
SYMATTR InstName C3
SYMATTR Value 2.2µ
SYMBOL cap 976 80 R0
SYMATTR InstName C4
SYMATTR Value 4.7µ
SYMBOL voltage -544 -240 R0
WINDOW 123 0 0 Left 0
WINDOW 39 0 0 Left 0
SYMATTR InstName V1
SYMATTR Value SINE(0 50m 1k 0 0 0 0)
SYMBOL voltage -16 64 R0
WINDOW 123 0 0 Left 0
WINDOW 39 0 0 Left 0
SYMATTR InstName V2
SYMATTR Value 10
SYMBOL cap 320 16 R90
WINDOW 0 0 32 VBottom 2
WINDOW 3 32 32 VTop 2
SYMATTR InstName C1
SYMATTR Value 1
SYMBOL res 336 -96 R0
SYMATTR InstName R1
SYMATTR Value 10
SYMBOL res 336 48 R0
SYMATTR InstName R2
SYMATTR Value 10
TEXT -432 400 Left 2 !.tran 10m
